
OS:Version,
  {4b283e18-cbc2-4881-9c01-134e490f6d46}, !- Handle
  1.14.0;                                 !- Version Identifier

OS:ScheduleTypeLimits,
  {044629b3-4afc-43f5-83f0-add8f91267a7}, !- Handle
  Fraction,                               !- Name
  0,                                      !- Lower Limit Value
  1,                                      !- Upper Limit Value
  Continuous;                             !- Numeric Type

OS:ScheduleTypeLimits,
  {9390e9b3-8cdc-4be4-92d2-0e30a178d49a}, !- Handle
  OnOff,                                  !- Name
  0,                                      !- Lower Limit Value
  1,                                      !- Upper Limit Value
  Continuous,                             !- Numeric Type
  Availability;                           !- Unit Type

OS:ScheduleTypeLimits,
  {374e950c-a437-48ef-a25f-de7f500ec9c1}, !- Handle
  Temperature,                            !- Name
  ,                                       !- Lower Limit Value
  ,                                       !- Upper Limit Value
  Continuous,                             !- Numeric Type
  Temperature;                            !- Unit Type

OS:ScheduleTypeLimits,
  {d093f274-6bf7-436a-a531-f45f2e35caf6}, !- Handle
  Dimensionless,                          !- Name
  ,                                       !- Lower Limit Value
  ,                                       !- Upper Limit Value
  Continuous;                             !- Numeric Type

OS:ScheduleTypeLimits,
  {117272e2-7b09-44a2-ad34-823ea9be49db}, !- Handle
  Dimensionless 1,                        !- Name
  -1,                                     !- Lower Limit Value
  1,                                      !- Upper Limit Value
  Continuous;                             !- Numeric Type

OS:ScheduleTypeLimits,
  {0fdd1c3a-39d2-4a9b-9005-75bb602a802d}, !- Handle
  Dimensionless 2,                        !- Name
  0,                                      !- Lower Limit Value
  1,                                      !- Upper Limit Value
  Continuous,                             !- Numeric Type
  Dimensionless;                          !- Unit Type

OS:ScheduleTypeLimits,
  {fc1484a3-835d-4791-b5e5-a0465502800d}, !- Handle
  ActivityLevel,                          !- Name
  0,                                      !- Lower Limit Value
  ,                                       !- Upper Limit Value
  Continuous,                             !- Numeric Type
  ActivityLevel;                          !- Unit Type

OS:ScheduleTypeLimits,
  {1019dcd1-40f3-49ed-b80d-fe8dcf151557}, !- Handle
  Capacity,                               !- Name
  0,                                      !- Lower Limit Value
  ,                                       !- Upper Limit Value
  Continuous,                             !- Numeric Type
  Capacity;                               !- Unit Type

OS:ScheduleTypeLimits,
  {eaa5a5d8-06e0-4c60-ae4c-1cd5e5607211}, !- Handle
  ClothingInsulation,                     !- Name
  0,                                      !- Lower Limit Value
  ,                                       !- Upper Limit Value
  Continuous,                             !- Numeric Type
  ClothingInsulation;                     !- Unit Type

OS:ScheduleTypeLimits,
  {6621b612-44a7-4df2-8925-f8ef3585cdb4}, !- Handle
  ControlMode,                            !- Name
  0,                                      !- Lower Limit Value
  1,                                      !- Upper Limit Value
  Discrete,                               !- Numeric Type
  ControlMode;                            !- Unit Type

OS:ScheduleTypeLimits,
  {f54d0eff-97b6-41d2-8ad5-fc42e5be831d}, !- Handle
  DeltaTemperature,                       !- Name
  ,                                       !- Lower Limit Value
  ,                                       !- Upper Limit Value
  Continuous,                             !- Numeric Type
  DeltaTemperature;                       !- Unit Type

OS:ScheduleTypeLimits,
  {34b74cb6-f1e1-4b49-be18-4e3dec8e235b}, !- Handle
  LinearPowerDensity,                     !- Name
  0,                                      !- Lower Limit Value
  ,                                       !- Upper Limit Value
  Continuous,                             !- Numeric Type
  LinearPowerDensity;                     !- Unit Type

OS:ScheduleTypeLimits,
  {4bf40f48-1b89-44a1-bf35-5e3b7374d162}, !- Handle
  MassFlowRate,                           !- Name
  0,                                      !- Lower Limit Value
  ,                                       !- Upper Limit Value
  Continuous,                             !- Numeric Type
  MassFlowRate;                           !- Unit Type

OS:ScheduleTypeLimits,
  {1eaa5a2c-f74b-42ee-bce9-8efc5ab38410}, !- Handle
  Percent,                                !- Name
  0,                                      !- Lower Limit Value
  100,                                    !- Upper Limit Value
  Continuous,                             !- Numeric Type
  Percent;                                !- Unit Type

OS:ScheduleTypeLimits,
  {7f3a8069-5c2e-44da-a3e7-b189357719eb}, !- Handle
  Pressure,                               !- Name
  ,                                       !- Lower Limit Value
  ,                                       !- Upper Limit Value
  Continuous,                             !- Numeric Type
  Pressure;                               !- Unit Type

OS:ScheduleTypeLimits,
  {f09d6033-0946-45e8-af18-0296a8312222}, !- Handle
  RotationsPerMinute,                     !- Name
  0,                                      !- Lower Limit Value
  ,                                       !- Upper Limit Value
  Continuous,                             !- Numeric Type
  RotationsPerMinute;                     !- Unit Type

OS:ScheduleTypeLimits,
  {f46c5513-92e7-4e7d-b37c-caca5eae75c3}, !- Handle
  Velocity,                               !- Name
  0,                                      !- Lower Limit Value
  ,                                       !- Upper Limit Value
  Continuous,                             !- Numeric Type
  Velocity;                               !- Unit Type

OS:ScheduleTypeLimits,
  {3295a0f9-945f-4a95-bd58-b07a0cbe25d9}, !- Handle
  VolumetricFlowRate,                     !- Name
  0,                                      !- Lower Limit Value
  ,                                       !- Upper Limit Value
  Continuous,                             !- Numeric Type
  VolumetricFlowRate;                     !- Unit Type

OS:Schedule:Day,
  {3bda5213-e8fe-45b1-aa84-c66fffafda73}, !- Handle
  OnDay,                                  !- Name
  {044629b3-4afc-43f5-83f0-add8f91267a7}, !- Schedule Type Limits Name
  ,                                       !- Interpolate to Timestep
  24,                                     !- Hour 1
  0,                                      !- Minute 1
  1;                                      !- Value Until Time 1

OS:Schedule:Day,
  {9e5db3d3-971d-4a5f-8707-e9836d9ac3d8}, !- Handle
  OffDay,                                 !- Name
  {044629b3-4afc-43f5-83f0-add8f91267a7}, !- Schedule Type Limits Name
  ,                                       !- Interpolate to Timestep
  24,                                     !- Hour 1
  0,                                      !- Minute 1
  0;                                      !- Value Until Time 1

OS:Schedule:Day,
  {8a6f3849-b4c9-49c0-bfb8-34e51dd08f64}, !- Handle
  AverageServiceHotWaterWD,               !- Name
  {044629b3-4afc-43f5-83f0-add8f91267a7}, !- Schedule Type Limits Name
  ,                                       !- Interpolate to Timestep
  3,                                      !- Hour 1
  0,                                      !- Minute 1
  0.03,                                   !- Value Until Time 1
  4,                                      !- Hour 2
  0,                                      !- Minute 2
  0.02,                                   !- Value Until Time 2
  5,                                      !- Hour 3
  0,                                      !- Minute 3
  0.03,                                   !- Value Until Time 3
  6,                                      !- Hour 4
  0,                                      !- Minute 4
  0.04,                                   !- Value Until Time 4
  7,                                      !- Hour 5
  0,                                      !- Minute 5
  0.19,                                   !- Value Until Time 5
  8,                                      !- Hour 6
  0,                                      !- Minute 6
  0.26,                                   !- Value Until Time 6
  9,                                      !- Hour 7
  0,                                      !- Minute 7
  0.32,                                   !- Value Until Time 7
  11,                                     !- Hour 8
  0,                                      !- Minute 8
  0.35,                                   !- Value Until Time 8
  13,                                     !- Hour 9
  0,                                      !- Minute 9
  0.44,                                   !- Value Until Time 9
  14,                                     !- Hour 10
  0,                                      !- Minute 10
  0.4,                                    !- Value Until Time 10
  15,                                     !- Hour 11
  0,                                      !- Minute 11
  0.37,                                   !- Value Until Time 11
  16,                                     !- Hour 12
  0,                                      !- Minute 12
  0.4,                                    !- Value Until Time 12
  17,                                     !- Hour 13
  0,                                      !- Minute 13
  0.36,                                   !- Value Until Time 13
  18,                                     !- Hour 14
  0,                                      !- Minute 14
  0.31,                                   !- Value Until Time 14
  19,                                     !- Hour 15
  0,                                      !- Minute 15
  0.24,                                   !- Value Until Time 15
  20,                                     !- Hour 16
  0,                                      !- Minute 16
  0.18,                                   !- Value Until Time 16
  21,                                     !- Hour 17
  0,                                      !- Minute 17
  0.16,                                   !- Value Until Time 17
  22,                                     !- Hour 18
  0,                                      !- Minute 18
  0.14,                                   !- Value Until Time 18
  23,                                     !- Hour 19
  0,                                      !- Minute 19
  0.08,                                   !- Value Until Time 19
  24,                                     !- Hour 20
  0,                                      !- Minute 20
  0.05;                                   !- Value Until Time 20

OS:Schedule:Day,
  {ccda1a94-0aaf-46d4-af09-5c780df08524}, !- Handle
  AverageServiceHotWaterSat,              !- Name
  {044629b3-4afc-43f5-83f0-add8f91267a7}, !- Schedule Type Limits Name
  ,                                       !- Interpolate to Timestep
  1,                                      !- Hour 1
  0,                                      !- Minute 1
  0.04,                                   !- Value Until Time 1
  3,                                      !- Hour 2
  0,                                      !- Minute 2
  0.03,                                   !- Value Until Time 2
  5,                                      !- Hour 3
  0,                                      !- Minute 3
  0.02,                                   !- Value Until Time 3
  6,                                      !- Hour 4
  0,                                      !- Minute 4
  0.03,                                   !- Value Until Time 4
  9,                                      !- Hour 5
  0,                                      !- Minute 5
  0.14,                                   !- Value Until Time 5
  10,                                     !- Hour 6
  0,                                      !- Minute 6
  0.19,                                   !- Value Until Time 6
  11,                                     !- Hour 7
  0,                                      !- Minute 7
  0.17,                                   !- Value Until Time 7
  12,                                     !- Hour 8
  0,                                      !- Minute 8
  0.21,                                   !- Value Until Time 8
  13,                                     !- Hour 9
  0,                                      !- Minute 9
  0.18,                                   !- Value Until Time 9
  14,                                     !- Hour 10
  0,                                      !- Minute 10
  0.17,                                   !- Value Until Time 10
  15,                                     !- Hour 11
  0,                                      !- Minute 11
  0.19,                                   !- Value Until Time 11
  16,                                     !- Hour 12
  0,                                      !- Minute 12
  0.2,                                    !- Value Until Time 12
  17,                                     !- Hour 13
  0,                                      !- Minute 13
  0.21,                                   !- Value Until Time 13
  18,                                     !- Hour 14
  0,                                      !- Minute 14
  0.2,                                    !- Value Until Time 14
  19,                                     !- Hour 15
  0,                                      !- Minute 15
  0.15,                                   !- Value Until Time 15
  20,                                     !- Hour 16
  0,                                      !- Minute 16
  0.17,                                   !- Value Until Time 16
  21,                                     !- Hour 17
  0,                                      !- Minute 17
  0.13,                                   !- Value Until Time 17
  22,                                     !- Hour 18
  0,                                      !- Minute 18
  0.11,                                   !- Value Until Time 18
  23,                                     !- Hour 19
  0,                                      !- Minute 19
  0.06,                                   !- Value Until Time 19
  24,                                     !- Hour 20
  0,                                      !- Minute 20
  0.05;                                   !- Value Until Time 20

OS:Schedule:Day,
  {7911aeb8-f8fa-4d8a-951c-071e2699cf00}, !- Handle
  AverageServiceHotWaterSun,              !- Name
  {044629b3-4afc-43f5-83f0-add8f91267a7}, !- Schedule Type Limits Name
  ,                                       !- Interpolate to Timestep
  1,                                      !- Hour 1
  0,                                      !- Minute 1
  0.04,                                   !- Value Until Time 1
  3,                                      !- Hour 2
  0,                                      !- Minute 2
  0.03,                                   !- Value Until Time 2
  5,                                      !- Hour 3
  0,                                      !- Minute 3
  0.02,                                   !- Value Until Time 3
  6,                                      !- Hour 4
  0,                                      !- Minute 4
  0.03,                                   !- Value Until Time 4
  7,                                      !- Hour 5
  0,                                      !- Minute 5
  0.14,                                   !- Value Until Time 5
  8,                                      !- Hour 6
  0,                                      !- Minute 6
  0.13,                                   !- Value Until Time 6
  9,                                      !- Hour 7
  0,                                      !- Minute 7
  0.1,                                    !- Value Until Time 7
  10,                                     !- Hour 8
  0,                                      !- Minute 8
  0.09,                                   !- Value Until Time 8
  12,                                     !- Hour 9
  0,                                      !- Minute 9
  0.12,                                   !- Value Until Time 9
  13,                                     !- Hour 10
  0,                                      !- Minute 10
  0.11,                                   !- Value Until Time 10
  14,                                     !- Hour 11
  0,                                      !- Minute 11
  0.12,                                   !- Value Until Time 11
  15,                                     !- Hour 12
  0,                                      !- Minute 12
  0.14,                                   !- Value Until Time 12
  16,                                     !- Hour 13
  0,                                      !- Minute 13
  0.15,                                   !- Value Until Time 13
  17,                                     !- Hour 14
  0,                                      !- Minute 14
  0.17,                                   !- Value Until Time 14
  18,                                     !- Hour 15
  0,                                      !- Minute 15
  0.18,                                   !- Value Until Time 15
  19,                                     !- Hour 16
  0,                                      !- Minute 16
  0.13,                                   !- Value Until Time 16
  20,                                     !- Hour 17
  0,                                      !- Minute 17
  0.16,                                   !- Value Until Time 17
  21,                                     !- Hour 18
  0,                                      !- Minute 18
  0.11,                                   !- Value Until Time 18
  22,                                     !- Hour 19
  0,                                      !- Minute 19
  0.1,                                    !- Value Until Time 19
  23,                                     !- Hour 20
  0,                                      !- Minute 20
  0.06,                                   !- Value Until Time 20
  24,                                     !- Hour 21
  0,                                      !- Minute 21
  0.04;                                   !- Value Until Time 21

OS:Schedule:Day,
  {dd497f06-5b70-4b1a-9c43-2cf24bab394b}, !- Handle
  AssemblyOccupancyWD,                    !- Name
  {044629b3-4afc-43f5-83f0-add8f91267a7}, !- Schedule Type Limits Name
  ,                                       !- Interpolate to Timestep
  8,                                      !- Hour 1
  0,                                      !- Minute 1
  0,                                      !- Value Until Time 1
  11,                                     !- Hour 2
  0,                                      !- Minute 2
  0.2,                                    !- Value Until Time 2
  18,                                     !- Hour 3
  0,                                      !- Minute 3
  0.8,                                    !- Value Until Time 3
  22,                                     !- Hour 4
  0,                                      !- Minute 4
  0.2,                                    !- Value Until Time 4
  23,                                     !- Hour 5
  0,                                      !- Minute 5
  0.1,                                    !- Value Until Time 5
  24,                                     !- Hour 6
  0,                                      !- Minute 6
  0;                                      !- Value Until Time 6

OS:Schedule:Day,
  {b77a3d5c-75fe-4fd5-99ef-e427a2f554a2}, !- Handle
  AssemblyOccupancySat,                   !- Name
  {044629b3-4afc-43f5-83f0-add8f91267a7}, !- Schedule Type Limits Name
  ,                                       !- Interpolate to Timestep
  8,                                      !- Hour 1
  0,                                      !- Minute 1
  0,                                      !- Value Until Time 1
  11,                                     !- Hour 2
  0,                                      !- Minute 2
  0.2,                                    !- Value Until Time 2
  21,                                     !- Hour 3
  0,                                      !- Minute 3
  0.6,                                    !- Value Until Time 3
  22,                                     !- Hour 4
  0,                                      !- Minute 4
  0.8,                                    !- Value Until Time 4
  23,                                     !- Hour 5
  0,                                      !- Minute 5
  0.1,                                    !- Value Until Time 5
  24,                                     !- Hour 6
  0,                                      !- Minute 6
  0;                                      !- Value Until Time 6

OS:Schedule:Day,
  {5cc3374c-8c04-4683-9122-860984d8dfe5}, !- Handle
  AssemblyOccupancySun,                   !- Name
  {044629b3-4afc-43f5-83f0-add8f91267a7}, !- Schedule Type Limits Name
  ,                                       !- Interpolate to Timestep
  8,                                      !- Hour 1
  0,                                      !- Minute 1
  0,                                      !- Value Until Time 1
  13,                                     !- Hour 2
  0,                                      !- Minute 2
  0.1,                                    !- Value Until Time 2
  22,                                     !- Hour 3
  0,                                      !- Minute 3
  0.7,                                    !- Value Until Time 3
  23,                                     !- Hour 4
  0,                                      !- Minute 4
  0.2,                                    !- Value Until Time 4
  24,                                     !- Hour 5
  0,                                      !- Minute 5
  0;                                      !- Value Until Time 5

OS:Schedule:Day,
  {f65fc4aa-82aa-42ae-b78e-7a99fd1ce96f}, !- Handle
  AssemblyLightsWD,                       !- Name
  {044629b3-4afc-43f5-83f0-add8f91267a7}, !- Schedule Type Limits Name
  ,                                       !- Interpolate to Timestep
  6,                                      !- Hour 1
  0,                                      !- Minute 1
  0.05,                                   !- Value Until Time 1
  9,                                      !- Hour 2
  0,                                      !- Minute 2
  0.35,                                   !- Value Until Time 2
  22,                                     !- Hour 3
  0,                                      !- Minute 3
  0.65,                                   !- Value Until Time 3
  23,                                     !- Hour 4
  0,                                      !- Minute 4
  0.25,                                   !- Value Until Time 4
  24,                                     !- Hour 5
  0,                                      !- Minute 5
  0.05;                                   !- Value Until Time 5

OS:Schedule:Day,
  {031b7719-72a9-4d83-a272-876d37ab38f5}, !- Handle
  AssemblyLightsSat,                      !- Name
  {044629b3-4afc-43f5-83f0-add8f91267a7}, !- Schedule Type Limits Name
  ,                                       !- Interpolate to Timestep
  7,                                      !- Hour 1
  0,                                      !- Minute 1
  0.05,                                   !- Value Until Time 1
  9,                                      !- Hour 2
  0,                                      !- Minute 2
  0.3,                                    !- Value Until Time 2
  23,                                     !- Hour 3
  0,                                      !- Minute 3
  0.4,                                    !- Value Until Time 3
  24,                                     !- Hour 4
  0,                                      !- Minute 4
  0.05;                                   !- Value Until Time 4

OS:Schedule:Day,
  {f0b59a43-5a4e-4c3b-b89c-916fc64b02e3}, !- Handle
  AssemblyLightsSun,                      !- Name
  {044629b3-4afc-43f5-83f0-add8f91267a7}, !- Schedule Type Limits Name
  ,                                       !- Interpolate to Timestep
  7,                                      !- Hour 1
  0,                                      !- Minute 1
  0.05,                                   !- Value Until Time 1
  12,                                     !- Hour 2
  0,                                      !- Minute 2
  0.3,                                    !- Value Until Time 2
  22,                                     !- Hour 3
  0,                                      !- Minute 3
  0.55,                                   !- Value Until Time 3
  24,                                     !- Hour 4
  0,                                      !- Minute 4
  0.05;                                   !- Value Until Time 4

OS:Schedule:Day,
  {ba053bd9-0d70-499b-810f-f3062fb2d2aa}, !- Handle
  AssemblyReceptacleWD,                   !- Name
  {044629b3-4afc-43f5-83f0-add8f91267a7}, !- Schedule Type Limits Name
  ,                                       !- Interpolate to Timestep
  6,                                      !- Hour 1
  0,                                      !- Minute 1
  0.05,                                   !- Value Until Time 1
  9,                                      !- Hour 2
  0,                                      !- Minute 2
  0.4,                                    !- Value Until Time 2
  22,                                     !- Hour 3
  0,                                      !- Minute 3
  0.75,                                   !- Value Until Time 3
  23,                                     !- Hour 4
  0,                                      !- Minute 4
  0.25,                                   !- Value Until Time 4
  24,                                     !- Hour 5
  0,                                      !- Minute 5
  0.05;                                   !- Value Until Time 5

OS:Schedule:Day,
  {1dfc6460-45b1-409f-a10d-42860ecaf370}, !- Handle
  AssemblyReceptacleSat,                  !- Name
  {044629b3-4afc-43f5-83f0-add8f91267a7}, !- Schedule Type Limits Name
  ,                                       !- Interpolate to Timestep
  7,                                      !- Hour 1
  0,                                      !- Minute 1
  0.05,                                   !- Value Until Time 1
  9,                                      !- Hour 2
  0,                                      !- Minute 2
  0.3,                                    !- Value Until Time 2
  23,                                     !- Hour 3
  0,                                      !- Minute 3
  0.5,                                    !- Value Until Time 3
  24,                                     !- Hour 4
  0,                                      !- Minute 4
  0.05;                                   !- Value Until Time 4

OS:Schedule:Day,
  {0b653604-8c54-44d0-b659-edbb639a51de}, !- Handle
  AssemblyReceptacleSun,                  !- Name
  {044629b3-4afc-43f5-83f0-add8f91267a7}, !- Schedule Type Limits Name
  ,                                       !- Interpolate to Timestep
  7,                                      !- Hour 1
  0,                                      !- Minute 1
  0.05,                                   !- Value Until Time 1
  12,                                     !- Hour 2
  0,                                      !- Minute 2
  0.3,                                    !- Value Until Time 2
  22,                                     !- Hour 3
  0,                                      !- Minute 3
  0.65,                                   !- Value Until Time 3
  24,                                     !- Hour 4
  0,                                      !- Minute 4
  0.05;                                   !- Value Until Time 4

OS:Schedule:Day,
  {49624a3d-256b-4a8c-9a15-2d7a28c01b96}, !- Handle
  AssemblyHVACAvailWD,                    !- Name
  {9390e9b3-8cdc-4be4-92d2-0e30a178d49a}, !- Schedule Type Limits Name
  ,                                       !- Interpolate to Timestep
  7,                                      !- Hour 1
  0,                                      !- Minute 1
  0,                                      !- Value Until Time 1
  23,                                     !- Hour 2
  0,                                      !- Minute 2
  1,                                      !- Value Until Time 2
  24,                                     !- Hour 3
  0,                                      !- Minute 3
  0;                                      !- Value Until Time 3

OS:Schedule:Day,
  {d01bcf2a-8cbe-4bc3-9d61-102f23ddd107}, !- Handle
  AssemblyHVACAvailSat,                   !- Name
  {9390e9b3-8cdc-4be4-92d2-0e30a178d49a}, !- Schedule Type Limits Name
  ,                                       !- Interpolate to Timestep
  7,                                      !- Hour 1
  0,                                      !- Minute 1
  0,                                      !- Value Until Time 1
  23,                                     !- Hour 2
  0,                                      !- Minute 2
  1,                                      !- Value Until Time 2
  24,                                     !- Hour 3
  0,                                      !- Minute 3
  0;                                      !- Value Until Time 3

OS:Schedule:Day,
  {d293ff96-d413-4764-9134-87c5fd4fc893}, !- Handle
  AssemblyHVACAvailSun,                   !- Name