
OS:Version,
  {b3beeda8-6049-43ef-a18e-31b52329068e}, !- Handle
  1.14.0;                                 !- Version Identifier

OS:ScheduleTypeLimits,
  {d67952c1-0db9-49aa-9f1e-f0f7fe1667ae}, !- Handle
  Fraction,                               !- Name
  0,                                      !- Lower Limit Value
  1,                                      !- Upper Limit Value
  Continuous;                             !- Numeric Type

OS:ScheduleTypeLimits,
  {aa45e39f-af9e-4943-8e73-48917b442aed}, !- Handle
  OnOff,                                  !- Name
  0,                                      !- Lower Limit Value
  1,                                      !- Upper Limit Value
  Continuous,                             !- Numeric Type
  Availability;                           !- Unit Type

OS:ScheduleTypeLimits,
  {7e0b91db-aca9-4a21-a248-0161a68153b4}, !- Handle
  Temperature,                            !- Name
  ,                                       !- Lower Limit Value
  ,                                       !- Upper Limit Value
  Continuous,                             !- Numeric Type
  Temperature;                            !- Unit Type

OS:ScheduleTypeLimits,
  {ed2de71b-5df7-474b-929c-2edefb02d1c8}, !- Handle
  Dimensionless,                          !- Name
  ,                                       !- Lower Limit Value
  ,                                       !- Upper Limit Value
  Continuous;                             !- Numeric Type

OS:ScheduleTypeLimits,
  {14d1dc8f-06aa-409a-a69b-23d59d350844}, !- Handle
  Dimensionless 1,                        !- Name
  -1,                                     !- Lower Limit Value
  1,                                      !- Upper Limit Value
  Continuous;                             !- Numeric Type

OS:ScheduleTypeLimits,
  {b0e44770-3ff2-4d54-8f51-880657ffccdf}, !- Handle
  Dimensionless 2,                        !- Name
  0,                                      !- Lower Limit Value
  1,                                      !- Upper Limit Value
  Continuous,                             !- Numeric Type
  Dimensionless;                          !- Unit Type

OS:ScheduleTypeLimits,
  {baabd8c2-593e-47e9-92b8-2d356871b885}, !- Handle
  ActivityLevel,                          !- Name
  0,                                      !- Lower Limit Value
  ,                                       !- Upper Limit Value
  Continuous,                             !- Numeric Type
  ActivityLevel;                          !- Unit Type

OS:ScheduleTypeLimits,
  {84c68f6a-3bf1-4846-9c83-d2bbd7a45860}, !- Handle
  Capacity,                               !- Name
  0,                                      !- Lower Limit Value
  ,                                       !- Upper Limit Value
  Continuous,                             !- Numeric Type
  Capacity;                               !- Unit Type

OS:ScheduleTypeLimits,
  {aa3943a9-8d6c-4c51-b380-9971b049546a}, !- Handle
  ClothingInsulation,                     !- Name
  0,                                      !- Lower Limit Value
  ,                                       !- Upper Limit Value
  Continuous,                             !- Numeric Type
  ClothingInsulation;                     !- Unit Type

OS:ScheduleTypeLimits,
  {5572acaa-9c20-4d86-81ca-0b70049163d9}, !- Handle
  ControlMode,                            !- Name
  0,                                      !- Lower Limit Value
  1,                                      !- Upper Limit Value
  Discrete,                               !- Numeric Type
  ControlMode;                            !- Unit Type

OS:ScheduleTypeLimits,
  {00fc845d-06c1-4dbb-8d57-0138a6b46ca1}, !- Handle
  DeltaTemperature,                       !- Name
  ,                                       !- Lower Limit Value
  ,                                       !- Upper Limit Value
  Continuous,                             !- Numeric Type
  DeltaTemperature;                       !- Unit Type

OS:ScheduleTypeLimits,
  {0ab8d08a-7a5b-421d-b7ea-0ff8b5d01115}, !- Handle
  LinearPowerDensity,                     !- Name
  0,                                      !- Lower Limit Value
  ,                                       !- Upper Limit Value
  Continuous,                             !- Numeric Type
  LinearPowerDensity;                     !- Unit Type

OS:ScheduleTypeLimits,
  {298f9036-26ae-4290-a2b4-8784848a699b}, !- Handle
  MassFlowRate,                           !- Name
  0,                                      !- Lower Limit Value
  ,                                       !- Upper Limit Value
  Continuous,                             !- Numeric Type
  MassFlowRate;                           !- Unit Type

OS:ScheduleTypeLimits,
  {5d5814aa-888b-4f3a-b05f-422a4696a178}, !- Handle
  Percent,                                !- Name
  0,                                      !- Lower Limit Value
  100,                                    !- Upper Limit Value
  Continuous,                             !- Numeric Type
  Percent;                                !- Unit Type

OS:ScheduleTypeLimits,
  {5ede51b5-9be7-48f0-b3f6-691c20365d8a}, !- Handle
  Pressure,                               !- Name
  ,                                       !- Lower Limit Value
  ,                                       !- Upper Limit Value
  Continuous,                             !- Numeric Type
  Pressure;                               !- Unit Type

OS:ScheduleTypeLimits,
  {2084fc00-cae8-4de3-a2cd-ce34c124693b}, !- Handle
  RotationsPerMinute,                     !- Name
  0,                                      !- Lower Limit Value
  ,                                       !- Upper Limit Value
  Continuous,                             !- Numeric Type
  RotationsPerMinute;                     !- Unit Type

OS:ScheduleTypeLimits,
  {c0511f2c-1886-405e-a0f1-01c98f8368e4}, !- Handle
  Velocity,                               !- Name
  0,                                      !- Lower Limit Value
  ,                                       !- Upper Limit Value
  Continuous,                             !- Numeric Type
  Velocity;                               !- Unit Type

OS:ScheduleTypeLimits,
  {937a3049-510a-43c4-abc8-a11e3b80030f}, !- Handle
  VolumetricFlowRate,                     !- Name
  0,                                      !- Lower Limit Value
  ,                                       !- Upper Limit Value
  Continuous,                             !- Numeric Type
  VolumetricFlowRate;                     !- Unit Type

OS:Schedule:Day,
  {0ded92db-a1a8-4b13-8612-318120e24d25}, !- Handle
  OnDay,                                  !- Name
  {d67952c1-0db9-49aa-9f1e-f0f7fe1667ae}, !- Schedule Type Limits Name
  ,                                       !- Interpolate to Timestep
  24,                                     !- Hour 1
  0,                                      !- Minute 1
  1;                                      !- Value Until Time 1

OS:Schedule:Day,
  {0f4c3696-34a1-4c40-8405-9232a8cc94d4}, !- Handle
  OffDay,                                 !- Name
  {d67952c1-0db9-49aa-9f1e-f0f7fe1667ae}, !- Schedule Type Limits Name
  ,                                       !- Interpolate to Timestep
  24,                                     !- Hour 1
  0,                                      !- Minute 1
  0;                                      !- Value Until Time 1

OS:Schedule:Day,
  {5683c4a5-2510-457d-9bd9-83abbaf1e7e4}, !- Handle
  AverageServiceHotWaterWD,               !- Name
  {d67952c1-0db9-49aa-9f1e-f0f7fe1667ae}, !- Schedule Type Limits Name
  ,                                       !- Interpolate to Timestep
  3,                                      !- Hour 1
  0,                                      !- Minute 1
  0.03,                                   !- Value Until Time 1
  4,                                      !- Hour 2
  0,                                      !- Minute 2
  0.02,                                   !- Value Until Time 2
  5,                                      !- Hour 3
  0,                                      !- Minute 3
  0.03,                                   !- Value Until Time 3
  6,                                      !- Hour 4
  0,                                      !- Minute 4
  0.04,                                   !- Value Until Time 4
  7,                                      !- Hour 5
  0,                                      !- Minute 5
  0.19,                                   !- Value Until Time 5
  8,                                      !- Hour 6
  0,                                      !- Minute 6
  0.26,                                   !- Value Until Time 6
  9,                                      !- Hour 7
  0,                                      !- Minute 7
  0.32,                                   !- Value Until Time 7
  11,                                     !- Hour 8
  0,                                      !- Minute 8
  0.35,                                   !- Value Until Time 8
  13,                                     !- Hour 9
  0,                                      !- Minute 9
  0.44,                                   !- Value Until Time 9
  14,                                     !- Hour 10
  0,                                      !- Minute 10
  0.4,                                    !- Value Until Time 10
  15,                                     !- Hour 11
  0,                                      !- Minute 11
  0.37,                                   !- Value Until Time 11
  16,                                     !- Hour 12
  0,                                      !- Minute 12
  0.4,                                    !- Value Until Time 12
  17,                                     !- Hour 13
  0,                                      !- Minute 13
  0.36,                                   !- Value Until Time 13
  18,                                     !- Hour 14
  0,                                      !- Minute 14
  0.31,                                   !- Value Until Time 14
  19,                                     !- Hour 15
  0,                                      !- Minute 15
  0.24,                                   !- Value Until Time 15
  20,                                     !- Hour 16
  0,                                      !- Minute 16
  0.18,                                   !- Value Until Time 16
  21,                                     !- Hour 17
  0,                                      !- Minute 17
  0.16,                                   !- Value Until Time 17
  22,                                     !- Hour 18
  0,                                      !- Minute 18
  0.14,                                   !- Value Until Time 18
  23,                                     !- Hour 19
  0,                                      !- Minute 19
  0.08,                                   !- Value Until Time 19
  24,                                     !- Hour 20
  0,                                      !- Minute 20
  0.05;                                   !- Value Until Time 20

OS:Schedule:Day,
  {d54da808-3df9-4891-944e-e2158f1fe610}, !- Handle
  AverageServiceHotWaterSat,              !- Name
  {d67952c1-0db9-49aa-9f1e-f0f7fe1667ae}, !- Schedule Type Limits Name
  ,                                       !- Interpolate to Timestep
  1,                                      !- Hour 1
  0,                                      !- Minute 1
  0.04,                                   !- Value Until Time 1
  3,                                      !- Hour 2
  0,                                      !- Minute 2
  0.03,                                   !- Value Until Time 2
  5,                                      !- Hour 3
  0,                                      !- Minute 3
  0.02,                                   !- Value Until Time 3
  6,                                      !- Hour 4
  0,                                      !- Minute 4
  0.03,                                   !- Value Until Time 4
  9,                                      !- Hour 5
  0,                                      !- Minute 5
  0.14,                                   !- Value Until Time 5
  10,                                     !- Hour 6
  0,                                      !- Minute 6
  0.19,                                   !- Value Until Time 6
  11,                                     !- Hour 7
  0,                                      !- Minute 7
  0.17,                                   !- Value Until Time 7
  12,                                     !- Hour 8
  0,                                      !- Minute 8
  0.21,                                   !- Value Until Time 8
  13,                                     !- Hour 9
  0,                                      !- Minute 9
  0.18,                                   !- Value Until Time 9
  14,                                     !- Hour 10
  0,                                      !- Minute 10
  0.17,                                   !- Value Until Time 10
  15,                                     !- Hour 11
  0,                                      !- Minute 11
  0.19,                                   !- Value Until Time 11
  16,                                     !- Hour 12
  0,                                      !- Minute 12
  0.2,                                    !- Value Until Time 12
  17,                                     !- Hour 13
  0,                                      !- Minute 13
  0.21,                                   !- Value Until Time 13
  18,                                     !- Hour 14
  0,                                      !- Minute 14
  0.2,                                    !- Value Until Time 14
  19,                                     !- Hour 15
  0,                                      !- Minute 15
  0.15,                                   !- Value Until Time 15
  20,                                     !- Hour 16
  0,                                      !- Minute 16
  0.17,                                   !- Value Until Time 16
  21,                                     !- Hour 17
  0,                                      !- Minute 17
  0.13,                                   !- Value Until Time 17
  22,                                     !- Hour 18
  0,                                      !- Minute 18
  0.11,                                   !- Value Until Time 18
  23,                                     !- Hour 19
  0,                                      !- Minute 19
  0.06,                                   !- Value Until Time 19
  24,                                     !- Hour 20
  0,                                      !- Minute 20
  0.05;                                   !- Value Until Time 20

OS:Schedule:Day,
  {e5ecb12d-f074-45c9-8127-5c4db9d96ff2}, !- Handle
  AverageServiceHotWaterSun,              !- Name
  {d67952c1-0db9-49aa-9f1e-f0f7fe1667ae}, !- Schedule Type Limits Name
  ,                                       !- Interpolate to Timestep
  1,                                      !- Hour 1
  0,                                      !- Minute 1
  0.04,                                   !- Value Until Time 1
  3,                                      !- Hour 2
  0,                                      !- Minute 2
  0.03,                                   !- Value Until Time 2
  5,                                      !- Hour 3
  0,                                      !- Minute 3
  0.02,                                   !- Value Until Time 3
  6,                                      !- Hour 4
  0,                                      !- Minute 4
  0.03,                                   !- Value Until Time 4
  7,                                      !- Hour 5
  0,                                      !- Minute 5
  0.14,                                   !- Value Until Time 5
  8,                                      !- Hour 6
  0,                                      !- Minute 6
  0.13,                                   !- Value Until Time 6
  9,                                      !- Hour 7
  0,                                      !- Minute 7
  0.1,                                    !- Value Until Time 7
  10,                                     !- Hour 8
  0,                                      !- Minute 8
  0.09,                                   !- Value Until Time 8
  12,                                     !- Hour 9
  0,                                      !- Minute 9
  0.12,                                   !- Value Until Time 9
  13,                                     !- Hour 10
  0,                                      !- Minute 10
  0.11,                                   !- Value Until Time 10
  14,                                     !- Hour 11
  0,                                      !- Minute 11
  0.12,                                   !- Value Until Time 11
  15,                                     !- Hour 12
  0,                                      !- Minute 12
  0.14,                                   !- Value Until Time 12
  16,                                     !- Hour 13
  0,                                      !- Minute 13
  0.15,                                   !- Value Until Time 13
  17,                                     !- Hour 14
  0,                                      !- Minute 14
  0.17,                                   !- Value Until Time 14
  18,                                     !- Hour 15
  0,                                      !- Minute 15
  0.18,                                   !- Value Until Time 15
  19,                                     !- Hour 16
  0,                                      !- Minute 16
  0.13,                                   !- Value Until Time 16
  20,                                     !- Hour 17
  0,                                      !- Minute 17
  0.16,                                   !- Value Until Time 17
  21,                                     !- Hour 18
  0,                                      !- Minute 18
  0.11,                                   !- Value Until Time 18
  22,                                     !- Hour 19
  0,                                      !- Minute 19
  0.1,                                    !- Value Until Time 19
  23,                                     !- Hour 20
  0,                                      !- Minute 20
  0.06,                                   !- Value Until Time 20
  24,                                     !- Hour 21
  0,                                      !- Minute 21
  0.04;                                   !- Value Until Time 21

OS:Schedule:Day,
  {212bd89a-3487-47a8-9839-8a39479e6bec}, !- Handle
  AssemblyOccupancyWD,                    !- Name
  {d67952c1-0db9-49aa-9f1e-f0f7fe1667ae}, !- Schedule Type Limits Name
  ,                                       !- Interpolate to Timestep
  8,                                      !- Hour 1
  0,                                      !- Minute 1
  0,                                      !- Value Until Time 1
  11,                                     !- Hour 2
  0,                                      !- Minute 2
  0.2,                                    !- Value Until Time 2
  18,                                     !- Hour 3
  0,                                      !- Minute 3
  0.8,                                    !- Value Until Time 3
  22,                                     !- Hour 4
  0,                                      !- Minute 4
  0.2,                                    !- Value Until Time 4
  23,                                     !- Hour 5
  0,                                      !- Minute 5
  0.1,                                    !- Value Until Time 5
  24,                                     !- Hour 6
  0,                                      !- Minute 6
  0;                                      !- Value Until Time 6

OS:Schedule:Day,
  {5041ae99-9bcd-4afa-9018-887951b4600f}, !- Handle
  AssemblyOccupancySat,                   !- Name
  {d67952c1-0db9-49aa-9f1e-f0f7fe1667ae}, !- Schedule Type Limits Name
  ,                                       !- Interpolate to Timestep
  8,                                      !- Hour 1
  0,                                      !- Minute 1
  0,                                      !- Value Until Time 1
  11,                                     !- Hour 2
  0,                                      !- Minute 2
  0.2,                                    !- Value Until Time 2
  21,                                     !- Hour 3
  0,                                      !- Minute 3
  0.6,                                    !- Value Until Time 3
  22,                                     !- Hour 4
  0,                                      !- Minute 4
  0.8,                                    !- Value Until Time 4
  23,                                     !- Hour 5
  0,                                      !- Minute 5
  0.1,                                    !- Value Until Time 5
  24,                                     !- Hour 6
  0,                                      !- Minute 6
  0;                                      !- Value Until Time 6

OS:Schedule:Day,
  {6f0f963f-1430-4331-98a5-122f9c75baf8}, !- Handle
  AssemblyOccupancySun,                   !- Name
  {d67952c1-0db9-49aa-9f1e-f0f7fe1667ae}, !- Schedule Type Limits Name
  ,                                       !- Interpolate to Timestep
  8,                                      !- Hour 1
  0,                                      !- Minute 1
  0,                                      !- Value Until Time 1
  13,                                     !- Hour 2
  0,                                      !- Minute 2
  0.1,                                    !- Value Until Time 2
  22,                                     !- Hour 3
  0,                                      !- Minute 3
  0.7,                                    !- Value Until Time 3
  23,                                     !- Hour 4
  0,                                      !- Minute 4
  0.2,                                    !- Value Until Time 4
  24,                                     !- Hour 5
  0,                                      !- Minute 5
  0;                                      !- Value Until Time 5

OS:Schedule:Day,
  {1b6d151f-a699-4483-a0b6-449065cb0362}, !- Handle
  AssemblyLightsWD,                       !- Name
  {d67952c1-0db9-49aa-9f1e-f0f7fe1667ae}, !- Schedule Type Limits Name
  ,                                       !- Interpolate to Timestep
  6,                                      !- Hour 1
  0,                                      !- Minute 1
  0.05,                                   !- Value Until Time 1
  9,                                      !- Hour 2
  0,                                      !- Minute 2
  0.35,                                   !- Value Until Time 2
  22,                                     !- Hour 3
  0,                                      !- Minute 3
  0.65,                                   !- Value Until Time 3
  23,                                     !- Hour 4
  0,                                      !- Minute 4
  0.25,                                   !- Value Until Time 4
  24,                                     !- Hour 5
  0,                                      !- Minute 5
  0.05;                                   !- Value Until Time 5

OS:Schedule:Day,
  {3f611b3b-dfa8-4f9c-a1fd-710aab2b16d4}, !- Handle
  AssemblyLightsSat,                      !- Name
  {d67952c1-0db9-49aa-9f1e-f0f7fe1667ae}, !- Schedule Type Limits Name
  ,                                       !- Interpolate to Timestep
  7,                                      !- Hour 1
  0,                                      !- Minute 1
  0.05,                                   !- Value Until Time 1
  9,                                      !- Hour 2
  0,                                      !- Minute 2
  0.3,                                    !- Value Until Time 2
  23,                                     !- Hour 3
  0,                                      !- Minute 3
  0.4,                                    !- Value Until Time 3
  24,                                     !- Hour 4
  0,                                      !- Minute 4
  0.05;                                   !- Value Until Time 4

OS:Schedule:Day,
  {8a97ced4-d420-4b9e-810e-ebad0ad657a0}, !- Handle
  AssemblyLightsSun,                      !- Name
  {d67952c1-0db9-49aa-9f1e-f0f7fe1667ae}, !- Schedule Type Limits Name
  ,                                       !- Interpolate to Timestep
  7,                                      !- Hour 1
  0,                                      !- Minute 1
  0.05,                                   !- Value Until Time 1
  12,                                     !- Hour 2
  0,                                      !- Minute 2
  0.3,                                    !- Value Until Time 2
  22,                                     !- Hour 3
  0,                                      !- Minute 3
  0.55,                                   !- Value Until Time 3
  24,                                     !- Hour 4
  0,                                      !- Minute 4
  0.05;                                   !- Value Until Time 4

OS:Schedule:Day,
  {18f8d722-51fc-4c37-907c-fcda68c654d9}, !- Handle
  AssemblyReceptacleWD,                   !- Name
  {d67952c1-0db9-49aa-9f1e-f0f7fe1667ae}, !- Schedule Type Limits Name
  ,                                       !- Interpolate to Timestep
  6,                                      !- Hour 1
  0,                                      !- Minute 1
  0.05,                                   !- Value Until Time 1
  9,                                      !- Hour 2
  0,                                      !- Minute 2
  0.4,                                    !- Value Until Time 2
  22,                                     !- Hour 3
  0,                                      !- Minute 3
  0.75,                                   !- Value Until Time 3
  23,                                     !- Hour 4
  0,                                      !- Minute 4
  0.25,                                   !- Value Until Time 4
  24,                                     !- Hour 5
  0,                                      !- Minute 5
  0.05;                                   !- Value Until Time 5

OS:Schedule:Day,
  {8f4d5b9d-a17a-4bd9-823d-370abc23658c}, !- Handle
  AssemblyReceptacleSat,                  !- Name
  {d67952c1-0db9-49aa-9f1e-f0f7fe1667ae}, !- Schedule Type Limits Name
  ,                                       !- Interpolate to Timestep
  7,                                      !- Hour 1
  0,                                      !- Minute 1
  0.05,                                   !- Value Until Time 1
  9,                                      !- Hour 2
  0,                                      !- Minute 2
  0.3,                                    !- Value Until Time 2
  23,                                     !- Hour 3
  0,                                      !- Minute 3
  0.5,                                    !- Value Until Time 3
  24,                                     !- Hour 4
  0,                                      !- Minute 4
  0.05;                                   !- Value Until Time 4

OS:Schedule:Day,
  {1bed3423-a17e-415d-b6cb-e4b05b3c2aab}, !- Handle
  AssemblyReceptacleSun,                  !- Name
  {d67952c1-0db9-49aa-9f1e-f0f7fe1667ae}, !- Schedule Type Limits Name
  ,                                       !- Interpolate to Timestep
  7,                                      !- Hour 1
  0,                                      !- Minute 1
  0.05,                                   !- Value Until Time 1
  12,                                     !- Hour 2
  0,                                      !- Minute 2
  0.3,                                    !- Value Until Time 2
  22,                                     !- Hour 3
  0,                                      !- Minute 3
  0.65,                                   !- Value Until Time 3
  24,                                     !- Hour 4
  0,                                      !- Minute 4
  0.05;                                   !- Value Until Time 4

OS:Schedule:Day,
  {ab5abc3d-6f5f-4bac-8fd2-e13e642f7976}, !- Handle
  AssemblyHVACAvailWD,                    !- Name
  {aa45e39f-af9e-4943-8e73-48917b442aed}, !- Schedule Type Limits Name
  ,                                       !- Interpolate to Timestep
  7,                                      !- Hour 1
  0,                                      !- Minute 1
  0,                                      !- Value Until Time 1
  23,                                     !- Hour 2
  0,                                      !- Minute 2
  1,                                      !- Value Until Time 2
  24,                                     !- Hour 3
  0,                                      !- Minute 3
  0;                                      !- Value Until Time 3

OS:Schedule:Day,
  {be6c03b2-42dd-47e5-9153-9f473866ffc8}, !- Handle
  AssemblyHVACAvailSat,                   !- Name
  {aa45e39f-af9e-4943-8e73-48917b442aed}, !- Schedule Type Limits Name
  ,                                       !- Interpolate to Timestep
  7,                                      !- Hour 1
  0,                                      !- Minute 1
  0,                                      !- Value Until Time 1
  23,                                     !- Hour 2
  0,                                      !- Minute 2
  1,                                      !- Value Until Time 2
  24,                                     !- Hour 3
  0,                                      !- Minute 3
  0;                                      !- Value Until Time 3

OS:Schedule:Day,
  {2c670a2a-e11b-404e-8fb5-c8889790dcc8}, !- Handle
  AssemblyHVACAvailSun,                   !- Name